LAMMPS (17 Nov 2016)
# 3d Lennard-Jones melt

processors  1 1 1
units		lj
atom_style	atomic

lattice		fcc 0.8442
Lattice spacing in x,y,z = 1.6796 1.6796 1.6796
region		box block 0 10 0 10 0 10
create_box	1 box
Created orthogonal box = (0 0 0) to (16.796 16.796 16.796)
create_atoms	1 box
Created 4000 atoms
mass		1 1.0

velocity	all create 3.0 87287

pair_style	lj/cut 2.5
pair_coeff	1 1 1.0 1.0 2.5

neighbor	0.3 bin
neigh_modify	every 20 delay 0 check no

fix		1 all nve

#dump		id all atom 50 dump.melt
thermo		50
dump		50 all custom 50 melt.lammpstrj id type xs ys zs ix iy iz
run	10000
  1 neighbor list requests
  update every 20 steps, delay 0 steps, check no
Step Temp E_pair E_mol TotEng Press
0            3   -6.7733681            0   -2.2744931   -3.7033504
Averages over the last 101 of 201 rows, steps 5000 to 10000:
Temp E_pair E_mol TotEng Press
1.62252 -4.76069 0 -2.32752 5.7869
Loop time of 40.3186 on 1 procs for 10000 steps with 4000 atoms

#dump		2 all image 25 image.*.jpg type type #		axes yes 0.8 0.02 view 60 -30
#dump_modify	2 pad 3

#dump		3 all movie 25 movie.mpg type type #		axes yes 0.8 0.02 view 60 -30
#dump_modify	3 pad 3
