LAMMPS (19 Jul 2011)
# 3d Lennard-Jones melt

processors  1 1 1
units		lj
atom_style	atomic

lattice		fcc 0.8442
Lattice spacing in x,y,z = 1.6796 1.6796 1.6796
region		box block 0 10 0 10 0 10
create_box	1 box
Created orthogonal box = (0 0 0) to (16.796 16.796 16.796)
create_atoms	1 box
Created 4000 atoms
mass		1 1.0

velocity	all create 3.0 87287

pair_style	lj/cut 2.5
pair_coeff	1 1 1.0 1.0 2.5

neighbor	0.3 bin
neigh_modify	every 20 delay 0 check no

fix		1 all nve

#dump		id all atom 50 dump.melt
thermo		500
dump		500 all custom 50 melt.lammpstrj id type xs ys zs ix iy iz
run	10000
Step Temp E_pair E_mol TotEng Press
0            3   -6.7733681            0   -2.2744931   -3.7033504
Averages over the last 11 of 21 rows, steps 5000 to 10000:
Temp E_pair E_mol TotEng Press
1.62726 -4.76824 0 -2.32795 5.76403
Loop time of 227.762 on 1 procs for 10000 steps with 4000 atoms

Pair  time (%) = 184.941 (81.1993)
Neigh time (%) = 23.4078 (10.2773)
Comm  time (%) = 5.79523 (2.54443)
Outpt time (%) = 6.7775 (2.9757)
Other time (%) = 6.84044 (3.00333)

#dump		2 all image 25 image.*.jpg type type #		axes yes 0.8 0.02 view 60 -30
#dump_modify	2 pad 3

#dump		3 all movie 25 movie.mpg type type #		axes yes 0.8 0.02 view 60 -30
#dump_modify	3 pad 3
